Version 4
SHEET 1 2136 808
WIRE -416 -224 -768 -224
WIRE -768 -144 -768 -224
WIRE -416 -144 -416 -224
WIRE -320 -144 -320 -192
WIRE -320 -144 -416 -144
WIRE 256 -144 -320 -144
WIRE -320 -64 -320 -144
WIRE 256 -64 256 -144
WIRE -768 0 -768 -64
WIRE -768 0 -848 0
WIRE -720 0 -768 0
WIRE 1440 48 1440 0
WIRE 1632 48 1632 0
WIRE -320 112 -320 16
WIRE -96 128 -272 128
WIRE 256 128 256 16
WIRE 256 128 -16 128
WIRE -720 144 -720 0
WIRE 256 144 256 128
WIRE 464 160 304 160
WIRE 768 160 544 160
WIRE 944 160 768 160
WIRE 768 192 768 160
WIRE 768 288 768 256
WIRE -320 304 -320 208
WIRE 256 368 256 240
WIRE 1632 368 1632 336
WIRE 464 384 304 384
WIRE 768 384 544 384
WIRE 944 384 768 384
WIRE -720 400 -720 224
WIRE 768 416 768 384
WIRE -608 480 -672 480
WIRE -464 480 -528 480
WIRE -320 480 -320 384
WIRE -320 480 -464 480
WIRE 256 512 256 464
WIRE -320 528 -320 480
WIRE 768 528 768 480
WIRE -464 544 -464 480
WIRE -720 672 -720 496
WIRE -464 672 -464 608
WIRE -464 672 -720 672
WIRE -320 672 -320 608
WIRE -320 672 -464 672
WIRE -160 672 -320 672
WIRE 256 672 256 592
WIRE 256 672 -160 672
WIRE -160 768 -160 672
FLAG 768 528 0
FLAG -160 768 0
FLAG 768 288 0
FLAG 1440 128 0
FLAG 1632 128 0
FLAG 1632 448 0
FLAG 1440 0 3V3
FLAG 1632 0 Btn_Plus
FLAG 1632 336 Btn_Minus
FLAG -320 -192 3V3
FLAG 944 160 Btn_Plus
FLAG 944 384 Btn_Minus
FLAG -848 0 reset
SYMBOL pmos 304 240 R180
SYMATTR InstName M1
SYMATTR Value AO3423
SYMBOL nmos -672 400 M0
SYMATTR InstName M4
SYMATTR Value 2N7002
SYMBOL res -736 128 R0
SYMATTR InstName R1
SYMATTR Value 10
SYMBOL res -336 512 R0
SYMATTR InstName R2
SYMATTR Value 1000k
SYMBOL res -512 464 R90
WINDOW 0 0 56 VBottom 2
WINDOW 3 32 56 VTop 2
SYMATTR InstName R3
SYMATTR Value 10k
SYMBOL res -336 288 R0
SYMATTR InstName R4
SYMATTR Value 680k
SYMBOL res -336 -80 R0
SYMATTR InstName R5
SYMATTR Value 0
SYMBOL res 240 -80 R0
SYMATTR InstName R6
SYMATTR Value 10k
SYMBOL res 240 496 R0
SYMATTR InstName R7
SYMATTR Value 0
SYMBOL res 560 144 R90
WINDOW 0 0 56 VBottom 2
WINDOW 3 32 56 VTop 2
SYMATTR InstName R8
SYMATTR Value 150k
SYMBOL res 560 368 R90
WINDOW 0 0 56 VBottom 2
WINDOW 3 32 56 VTop 2
SYMATTR InstName R9
SYMATTR Value 150k
SYMBOL res 0 112 R90
WINDOW 0 0 56 VBottom 2
WINDOW 3 32 56 VTop 2
SYMATTR InstName R10
SYMATTR Value 4.7k
SYMBOL cap 752 416 R0
SYMATTR InstName C1
SYMATTR Value 100n
SYMBOL cap 752 192 R0
SYMATTR InstName C2
SYMATTR Value 100n
SYMBOL cap -480 544 R0
SYMATTR InstName C3
SYMATTR Value 10µ
SYMBOL voltage 1440 32 R0
WINDOW 123 0 0 Left 0
WINDOW 39 0 0 Left 0
SYMATTR InstName V1
SYMATTR Value 3.3V
SYMBOL voltage 1632 32 R0
WINDOW 3 29 89 Left 2
WINDOW 123 0 0 Left 0
WINDOW 39 0 0 Left 0
SYMATTR InstName V2
SYMATTR Value PULSE(3.3 0 1 0 0 7 20 1)
SYMBOL voltage 1632 352 R0
WINDOW 123 0 0 Left 0
WINDOW 39 0 0 Left 0
SYMATTR InstName V3
SYMATTR Value PULSE(3.3 0 1 0 0 7 20 1)
SYMBOL res -784 -160 R0
SYMATTR InstName R11
SYMATTR Value 10k
SYMBOL pmos 304 464 R180
SYMATTR InstName M2
SYMATTR Value AO3423
SYMBOL pmos -272 208 R180
SYMATTR InstName M3
SYMATTR Value AO3423
TEXT -848 792 Left 2 !.tran 25
